<?xml version="1.0" encoding="UTF-8"?>

<!-- generated on 2024-03-29 13:44:17 by Eclipse SUMO netedit Version 1.19.0
<configuration xmlns:xsi="http://www.w3.org/2001/XMLSchema-instance" xsi:noNamespaceSchemaLocation="http://sumo.dlr.de/xsd/neteditConfiguration.xsd">

    <input>
        <sumocfg-file value="D:\sim_01\sim_01.sumocfg"/>
        <route-files value="D:\sim_01\sim_01.rou.xml"/>
        <sumo-net-file value="D:\sim_01\sim_01.net.xml"/>
    </input>

    <output>
        <output-file value="D:\sim_01\sim_01.net.xml"/>
    </output>

    <processing>
        <offset.disable-normalization value="true"/>
    </processing>

    <junctions>
        <no-turnarounds value="true"/>
    </junctions>

    <netedit>
        <new-network value="false"/>
    </netedit>

</configuration>
-->

<net version="1.16" junctionCornerDetail="5" limitTurnSpeed="5.50" xmlns:xsi="http://www.w3.org/2001/XMLSchema-instance" xsi:noNamespaceSchemaLocation="http://sumo.dlr.de/xsd/net_file.xsd">

    <location netOffset="0.00,0.00" convBoundary="0.00,50.00,2000.00,50.00" origBoundary="10000000000.00,10000000000.00,-10000000000.00,-10000000000.00" projParameter="!"/>

    <edge id=":J1_0" function="internal">
        <lane id=":J1_0_0" index="0" speed="33.33" length="0.10" shape="400.00,38.80 400.00,38.80"/>
        <lane id=":J1_0_1" index="1" speed="33.33" length="0.10" shape="400.00,42.00 400.00,42.00"/>
        <lane id=":J1_0_2" index="2" speed="33.33" length="0.10" shape="400.00,45.20 400.00,45.20"/>
        <lane id=":J1_0_3" index="3" speed="33.33" length="0.10" shape="400.00,48.40 400.00,48.40"/>
    </edge>
    <edge id=":J2_0" function="internal">
        <lane id=":J2_0_0" index="0" speed="33.33" length="0.10" shape="800.00,38.80 800.00,38.80"/>
        <lane id=":J2_0_1" index="1" speed="33.33" length="0.10" shape="800.00,42.00 800.00,42.00"/>
        <lane id=":J2_0_2" index="2" speed="33.33" length="0.10" shape="800.00,45.20 800.00,45.20"/>
        <lane id=":J2_0_3" index="3" speed="33.33" length="0.10" shape="800.00,48.40 800.00,48.40"/>
    </edge>
    <edge id=":J3_0" function="internal">
        <lane id=":J3_0_0" index="0" speed="33.33" length="0.10" shape="1200.00,38.80 1200.00,38.80"/>
        <lane id=":J3_0_1" index="1" speed="33.33" length="0.10" shape="1200.00,42.00 1200.00,42.00"/>
        <lane id=":J3_0_2" index="2" speed="33.33" length="0.10" shape="1200.00,45.20 1200.00,45.20"/>
        <lane id=":J3_0_3" index="3" speed="33.33" length="0.10" shape="1200.00,48.40 1200.00,48.40"/>
    </edge>
    <edge id=":J4_0" function="internal">
        <lane id=":J4_0_0" index="0" speed="33.33" length="0.10" shape="1600.00,38.80 1600.00,38.80"/>
        <lane id=":J4_0_1" index="1" speed="33.33" length="0.10" shape="1600.00,42.00 1600.00,42.00"/>
        <lane id=":J4_0_2" index="2" speed="33.33" length="0.10" shape="1600.00,45.20 1600.00,45.20"/>
        <lane id=":J4_0_3" index="3" speed="33.33" length="0.10" shape="1600.00,48.40 1600.00,48.40"/>
    </edge>

    <edge id="S1" from="J0" to="J1" priority="-1">
        <lane id="S1_0" index="0" speed="33.33" length="400.00" shape="0.00,38.80 400.00,38.80"/>
        <lane id="S1_1" index="1" speed="33.33" length="400.00" shape="0.00,42.00 400.00,42.00"/>
        <lane id="S1_2" index="2" speed="33.33" length="400.00" shape="0.00,45.20 400.00,45.20"/>
        <lane id="S1_3" index="3" speed="33.33" length="400.00" shape="0.00,48.40 400.00,48.40"/>
    </edge>
    <edge id="S2" from="J1" to="J2" priority="-1">
        <lane id="S2_0" index="0" speed="33.33" length="400.00" shape="400.00,38.80 800.00,38.80"/>
        <lane id="S2_1" index="1" speed="33.33" length="400.00" shape="400.00,42.00 800.00,42.00"/>
        <lane id="S2_2" index="2" speed="33.33" length="400.00" shape="400.00,45.20 800.00,45.20"/>
        <lane id="S2_3" index="3" speed="33.33" length="400.00" shape="400.00,48.40 800.00,48.40"/>
    </edge>
    <edge id="S3" from="J2" to="J3" priority="-1">
        <lane id="S3_0" index="0" speed="33.33" length="400.00" shape="800.00,38.80 1200.00,38.80"/>
        <lane id="S3_1" index="1" speed="33.33" length="400.00" shape="800.00,42.00 1200.00,42.00"/>
        <lane id="S3_2" index="2" speed="33.33" length="400.00" shape="800.00,45.20 1200.00,45.20"/>
        <lane id="S3_3" index="3" speed="33.33" length="400.00" shape="800.00,48.40 1200.00,48.40"/>
    </edge>
    <edge id="S4" from="J3" to="J4" priority="-1">
        <lane id="S4_0" index="0" speed="33.33" length="400.00" shape="1200.00,38.80 1600.00,38.80"/>
        <lane id="S4_1" index="1" speed="33.33" length="400.00" shape="1200.00,42.00 1600.00,42.00"/>
        <lane id="S4_2" index="2" speed="33.33" length="400.00" shape="1200.00,45.20 1600.00,45.20"/>
        <lane id="S4_3" index="3" speed="33.33" length="400.00" shape="1200.00,48.40 1600.00,48.40"/>
    </edge>
    <edge id="S5" from="J4" to="J5" priority="-1">
        <lane id="S5_0" index="0" speed="33.33" length="400.00" shape="1600.00,38.80 2000.00,38.80"/>
        <lane id="S5_1" index="1" speed="33.33" length="400.00" shape="1600.00,42.00 2000.00,42.00"/>
        <lane id="S5_2" index="2" speed="33.33" length="400.00" shape="1600.00,45.20 2000.00,45.20"/>
        <lane id="S5_3" index="3" speed="33.33" length="400.00" shape="1600.00,48.40 2000.00,48.40"/>
    </edge>

    <junction id="J0" type="dead_end" x="0.00" y="50.00" incLanes="" intLanes="" shape="0.00,50.00 0.00,37.20"/>
    <junction id="J1" type="priority" x="400.00" y="50.00" incLanes="S1_0 S1_1 S1_2 S1_3" intLanes=":J1_0_0 :J1_0_1 :J1_0_2 :J1_0_3" shape="400.00,50.00 400.00,37.20 400.00,50.00">
        <request index="0" response="0000" foes="0000" cont="0"/>
        <request index="1" response="0000" foes="0000" cont="0"/>
        <request index="2" response="0000" foes="0000" cont="0"/>
        <request index="3" response="0000" foes="0000" cont="0"/>
    </junction>
    <junction id="J2" type="priority" x="800.00" y="50.00" incLanes="S2_0 S2_1 S2_2 S2_3" intLanes=":J2_0_0 :J2_0_1 :J2_0_2 :J2_0_3" shape="800.00,50.00 800.00,37.20 800.00,50.00">
        <request index="0" response="0000" foes="0000" cont="0"/>
        <request index="1" response="0000" foes="0000" cont="0"/>
        <request index="2" response="0000" foes="0000" cont="0"/>
        <request index="3" response="0000" foes="0000" cont="0"/>
    </junction>
    <junction id="J3" type="priority" x="1200.00" y="50.00" incLanes="S3_0 S3_1 S3_2 S3_3" intLanes=":J3_0_0 :J3_0_1 :J3_0_2 :J3_0_3" shape="1200.00,50.00 1200.00,37.20 1200.00,50.00">
        <request index="0" response="0000" foes="0000" cont="0"/>
        <request index="1" response="0000" foes="0000" cont="0"/>
        <request index="2" response="0000" foes="0000" cont="0"/>
        <request index="3" response="0000" foes="0000" cont="0"/>
    </junction>
    <junction id="J4" type="priority" x="1600.00" y="50.00" incLanes="S4_0 S4_1 S4_2 S4_3" intLanes=":J4_0_0 :J4_0_1 :J4_0_2 :J4_0_3" shape="1600.00,50.00 1600.00,37.20 1600.00,50.00">
        <request index="0" response="0000" foes="0000" cont="0"/>
        <request index="1" response="0000" foes="0000" cont="0"/>
        <request index="2" response="0000" foes="0000" cont="0"/>
        <request index="3" response="0000" foes="0000" cont="0"/>
    </junction>
    <junction id="J5" type="dead_end" x="2000.00" y="50.00" incLanes="S5_0 S5_1 S5_2 S5_3" intLanes="" shape="2000.00,37.20 2000.00,50.00"/>

    <connection from="S1" to="S2" fromLane="0" toLane="0" via=":J1_0_0" dir="s" state="M"/>
    <connection from="S1" to="S2" fromLane="1" toLane="1" via=":J1_0_1" dir="s" state="M"/>
    <connection from="S1" to="S2" fromLane="2" toLane="2" via=":J1_0_2" dir="s" state="M"/>
    <connection from="S1" to="S2" fromLane="3" toLane="3" via=":J1_0_3" dir="s" state="M"/>
    <connection from="S2" to="S3" fromLane="0" toLane="0" via=":J2_0_0" dir="s" state="M"/>
    <connection from="S2" to="S3" fromLane="1" toLane="1" via=":J2_0_1" dir="s" state="M"/>
    <connection from="S2" to="S3" fromLane="2" toLane="2" via=":J2_0_2" dir="s" state="M"/>
    <connection from="S2" to="S3" fromLane="3" toLane="3" via=":J2_0_3" dir="s" state="M"/>
    <connection from="S3" to="S4" fromLane="0" toLane="0" via=":J3_0_0" dir="s" state="M"/>
    <connection from="S3" to="S4" fromLane="1" toLane="1" via=":J3_0_1" dir="s" state="M"/>
    <connection from="S3" to="S4" fromLane="2" toLane="2" via=":J3_0_2" dir="s" state="M"/>
    <connection from="S3" to="S4" fromLane="3" toLane="3" via=":J3_0_3" dir="s" state="M"/>
    <connection from="S4" to="S5" fromLane="0" toLane="0" via=":J4_0_0" dir="s" state="M"/>
    <connection from="S4" to="S5" fromLane="1" toLane="1" via=":J4_0_1" dir="s" state="M"/>
    <connection from="S4" to="S5" fromLane="2" toLane="2" via=":J4_0_2" dir="s" state="M"/>
    <connection from="S4" to="S5" fromLane="3" toLane="3" via=":J4_0_3" dir="s" state="M"/>

    <connection from=":J1_0" to="S2" fromLane="0" toLane="0" dir="s" state="M"/>
    <connection from=":J1_0" to="S2" fromLane="1" toLane="1" dir="s" state="M"/>
    <connection from=":J1_0" to="S2" fromLane="2" toLane="2" dir="s" state="M"/>
    <connection from=":J1_0" to="S2" fromLane="3" toLane="3" dir="s" state="M"/>
    <connection from=":J2_0" to="S3" fromLane="0" toLane="0" dir="s" state="M"/>
    <connection from=":J2_0" to="S3" fromLane="1" toLane="1" dir="s" state="M"/>
    <connection from=":J2_0" to="S3" fromLane="2" toLane="2" dir="s" state="M"/>
    <connection from=":J2_0" to="S3" fromLane="3" toLane="3" dir="s" state="M"/>
    <connection from=":J3_0" to="S4" fromLane="0" toLane="0" dir="s" state="M"/>
    <connection from=":J3_0" to="S4" fromLane="1" toLane="1" dir="s" state="M"/>
    <connection from=":J3_0" to="S4" fromLane="2" toLane="2" dir="s" state="M"/>
    <connection from=":J3_0" to="S4" fromLane="3" toLane="3" dir="s" state="M"/>
    <connection from=":J4_0" to="S5" fromLane="0" toLane="0" dir="s" state="M"/>
    <connection from=":J4_0" to="S5" fromLane="1" toLane="1" dir="s" state="M"/>
    <connection from=":J4_0" to="S5" fromLane="2" toLane="2" dir="s" state="M"/>
    <connection from=":J4_0" to="S5" fromLane="3" toLane="3" dir="s" state="M"/>

</net>
