<?xml version="1.0" encoding="UTF-8"?>

<!-- generated on 2024-05-17 12:36:33 by Eclipse SUMO netedit Version 1.19.0
<configuration xmlns:xsi="http://www.w3.org/2001/XMLSchema-instance" xsi:noNamespaceSchemaLocation="http://sumo.dlr.de/xsd/neteditConfiguration.xsd">

    <input>
        <sumo-net-file value="C:\Users\PETER\OneDrive\Desktop\SeniorProject\Full_simulation_6\network.net.xml"/>
    </input>

    <output>
        <output-file value="C:\Users\PETER\OneDrive\Desktop\SeniorProject\Full_simulation_6\network.net.xml"/>
    </output>

    <processing>
        <geometry.min-radius.fix.railways value="false"/>
        <geometry.max-grade.fix value="false"/>
        <offset.disable-normalization value="true"/>
        <lefthand value="0"/>
    </processing>

    <junctions>
        <no-turnarounds value="true"/>
        <junctions.corner-detail value="5"/>
        <junctions.limit-turn-speed value="5.50"/>
        <rectangular-lane-cut value="0"/>
    </junctions>

    <pedestrian>
        <walkingareas value="0"/>
    </pedestrian>

</configuration>
-->

<net version="1.16" junctionCornerDetail="5" limitTurnSpeed="5.50" xmlns:xsi="http://www.w3.org/2001/XMLSchema-instance" xsi:noNamespaceSchemaLocation="http://sumo.dlr.de/xsd/net_file.xsd">

    <location netOffset="0.00,0.00" convBoundary="0.00,50.00,2000.00,50.00" origBoundary="-10000000000.00,-10000000000.00,10000000000.00,10000000000.00" projParameter="!"/>

    <edge id=":J1_0" function="internal">
        <lane id=":J1_0_0" index="0" speed="33.33" length="0.10" shape="400.00,45.20 400.00,45.20"/>
        <lane id=":J1_0_1" index="1" speed="33.33" length="0.10" shape="400.00,48.40 400.00,48.40"/>
    </edge>
    <edge id=":J2_0" function="internal">
        <lane id=":J2_0_0" index="0" speed="33.33" length="0.10" shape="800.00,45.20 800.00,45.20"/>
        <lane id=":J2_0_1" index="1" speed="33.33" length="0.10" shape="800.00,48.40 800.00,48.40"/>
    </edge>
    <edge id=":J3_0" function="internal">
        <lane id=":J3_0_0" index="0" speed="33.33" length="0.10" shape="1200.00,45.20 1200.00,45.20"/>
        <lane id=":J3_0_1" index="1" speed="33.33" length="0.10" shape="1200.00,48.40 1200.00,48.40"/>
    </edge>
    <edge id=":J4_0" function="internal">
        <lane id=":J4_0_0" index="0" speed="33.33" length="0.10" shape="1600.00,45.20 1600.00,45.20"/>
        <lane id=":J4_0_1" index="1" speed="33.33" length="0.10" shape="1600.00,48.40 1600.00,48.40"/>
    </edge>

    <edge id="S1" from="J0" to="J1" priority="-1">
        <lane id="S1_0" index="0" speed="33.33" length="400.00" shape="0.00,45.20 400.00,45.20"/>
        <lane id="S1_1" index="1" speed="33.33" length="400.00" shape="0.00,48.40 400.00,48.40"/>
    </edge>
    <edge id="S2" from="J1" to="J2" priority="-1">
        <lane id="S2_0" index="0" speed="33.33" length="400.00" shape="400.00,45.20 800.00,45.20"/>
        <lane id="S2_1" index="1" speed="33.33" length="400.00" shape="400.00,48.40 800.00,48.40"/>
    </edge>
    <edge id="S3" from="J2" to="J3" priority="-1">
        <lane id="S3_0" index="0" speed="33.33" length="400.00" shape="800.00,45.20 1200.00,45.20"/>
        <lane id="S3_1" index="1" speed="33.33" length="400.00" shape="800.00,48.40 1200.00,48.40"/>
    </edge>
    <edge id="S4" from="J3" to="J4" priority="-1">
        <lane id="S4_0" index="0" speed="33.33" length="400.00" shape="1200.00,45.20 1600.00,45.20"/>
        <lane id="S4_1" index="1" speed="33.33" length="400.00" shape="1200.00,48.40 1600.00,48.40"/>
    </edge>
    <edge id="S5" from="J4" to="J5" priority="-1">
        <lane id="S5_0" index="0" speed="33.33" length="400.00" shape="1600.00,45.20 2000.00,45.20"/>
        <lane id="S5_1" index="1" speed="33.33" length="400.00" shape="1600.00,48.40 2000.00,48.40"/>
    </edge>

    <junction id="J0" type="dead_end" x="0.00" y="50.00" incLanes="" intLanes="" shape="0.00,50.00 0.00,43.60"/>
    <junction id="J1" type="priority" x="400.00" y="50.00" incLanes="S1_0 S1_1" intLanes=":J1_0_0 :J1_0_1" shape="400.00,50.00 400.00,43.60 400.00,50.00">
        <request index="0" response="00" foes="00" cont="0"/>
        <request index="1" response="00" foes="00" cont="0"/>
    </junction>
    <junction id="J2" type="priority" x="800.00" y="50.00" incLanes="S2_0 S2_1" intLanes=":J2_0_0 :J2_0_1" shape="800.00,50.00 800.00,43.60 800.00,50.00">
        <request index="0" response="00" foes="00" cont="0"/>
        <request index="1" response="00" foes="00" cont="0"/>
    </junction>
    <junction id="J3" type="priority" x="1200.00" y="50.00" incLanes="S3_0 S3_1" intLanes=":J3_0_0 :J3_0_1" shape="1200.00,50.00 1200.00,43.60 1200.00,50.00">
        <request index="0" response="00" foes="00" cont="0"/>
        <request index="1" response="00" foes="00" cont="0"/>
    </junction>
    <junction id="J4" type="priority" x="1600.00" y="50.00" incLanes="S4_0 S4_1" intLanes=":J4_0_0 :J4_0_1" shape="1600.00,50.00 1600.00,43.60 1600.00,50.00">
        <request index="0" response="00" foes="00" cont="0"/>
        <request index="1" response="00" foes="00" cont="0"/>
    </junction>
    <junction id="J5" type="dead_end" x="2000.00" y="50.00" incLanes="S5_0 S5_1" intLanes="" shape="2000.00,43.60 2000.00,50.00"/>

    <connection from="S1" to="S2" fromLane="0" toLane="0" via=":J1_0_0" dir="s" state="M"/>
    <connection from="S1" to="S2" fromLane="1" toLane="1" via=":J1_0_1" dir="s" state="M"/>
    <connection from="S2" to="S3" fromLane="0" toLane="0" via=":J2_0_0" dir="s" state="M"/>
    <connection from="S2" to="S3" fromLane="1" toLane="1" via=":J2_0_1" dir="s" state="M"/>
    <connection from="S3" to="S4" fromLane="0" toLane="0" via=":J3_0_0" dir="s" state="M"/>
    <connection from="S3" to="S4" fromLane="1" toLane="1" via=":J3_0_1" dir="s" state="M"/>
    <connection from="S4" to="S5" fromLane="0" toLane="0" via=":J4_0_0" dir="s" state="M"/>
    <connection from="S4" to="S5" fromLane="1" toLane="1" via=":J4_0_1" dir="s" state="M"/>

    <connection from=":J1_0" to="S2" fromLane="0" toLane="0" dir="s" state="M"/>
    <connection from=":J1_0" to="S2" fromLane="1" toLane="1" dir="s" state="M"/>
    <connection from=":J2_0" to="S3" fromLane="0" toLane="0" dir="s" state="M"/>
    <connection from=":J2_0" to="S3" fromLane="1" toLane="1" dir="s" state="M"/>
    <connection from=":J3_0" to="S4" fromLane="0" toLane="0" dir="s" state="M"/>
    <connection from=":J3_0" to="S4" fromLane="1" toLane="1" dir="s" state="M"/>
    <connection from=":J4_0" to="S5" fromLane="0" toLane="0" dir="s" state="M"/>
    <connection from=":J4_0" to="S5" fromLane="1" toLane="1" dir="s" state="M"/>

</net>
