<?xml version="1.0" encoding="UTF-8"?>

<!-- generated on 2024-03-29 13:37:15 by Eclipse SUMO netedit Version 1.19.0
-->
<routes xmlns:xsi="http://www.w3.org/2001/XMLSchema-instance" xsi:noNamespaceSchemaLocation="http://sumo.dlr.de/xsd/routes_file.xsd">
	<vType vClass="passenger" color="1,0,0" id="type1" minGap="2.5" />
    <vType vClass="passenger" color="0,1,0" id="type2" minGap="2.5" />
    <vType vClass="passenger" color="0,1,1" id="type3" minGap="2.5" />

    <route id="r_0" edges="S1 S2 S3 S4 S5"/>

    <vehicle depart="0.0" id="Vehicle_1" type="type1" departSpeed="speedLimit">
    	<route edges="S1 S2 S3 S4 S5" />
    	<stop endPos="0" lane="S3_0" until="2000" />
    </vehicle>

    <flow id="f_0" type="type2" begin="0.00" departSpeed="speedLimit" departLane="free" from="S1" to="S5" number="1000" vehsPerHour="3000" />

</routes>
